2332
  Marvin  12300703363D          

 17 17  0  0  0  0            999 V2000
   -0.5573   -2.4380    0.6060 N   0  0  0  0  0  0  0  0  0  0  0  0
   -2.0310   -1.5416   -0.7190 N   0  0  0  0  0  0  0  0  0  0  0  0
   -0.2307   -0.2114   -0.0621 C   0  0  0  0  0  0  0  0  0  0  0  0
    1.1882   -0.2043   -0.0518 C   0  0  0  0  0  0  0  0  0  0  0  0
   -0.8928    1.0424   -0.0866 C   0  0  0  0  0  0  0  0  0  0  0  0
    1.9146    1.0011   -0.0656 C   0  0  0  0  0  0  0  0  0  0  0  0
   -0.1724    2.2515   -0.0902 C   0  0  0  0  0  0  0  0  0  0  0  0
   -0.9430   -1.4056   -0.0577 C   0  0  0  0  0  0  0  0  0  0  0  0
    1.2330    2.2303   -0.0807 C   0  0  0  0  0  0  0  0  0  0  0  0
    1.7196   -1.0793   -0.0476 H   0  0  0  0  0  0  0  0  0  0  0  0
   -1.9150    1.0971   -0.0925 H   0  0  0  0  0  0  0  0  0  0  0  0
    2.9368    0.9851   -0.0669 H   0  0  0  0  0  0  0  0  0  0  0  0
   -0.6690    3.1447   -0.0987 H   0  0  0  0  0  0  0  0  0  0  0  0
    1.7582    3.1071   -0.0852 H   0  0  0  0  0  0  0  0  0  0  0  0
   -0.9798   -3.2643    0.4846 H   0  0  0  0  0  0  0  0  0  0  0  0
    0.1427   -2.3652    1.2230 H   0  0  0  0  0  0  0  0  0  0  0  0
   -2.5021   -2.3496   -0.7090 H   0  0  0  0  0  0  0  0  0  0  0  0
  1  8  1  0  0  0  0
  1 15  1  0  0  0  0
  1 16  1  0  0  0  0
  2  8  2  0  0  0  0
  2 17  1  0  0  0  0
  3  4  2  0  0  0  0
  3  5  1  0  0  0  0
  3  8  1  0  0  0  0
  4  6  1  0  0  0  0
  4 10  1  0  0  0  0
  5  7  2  0  0  0  0
  5 11  1  0  0  0  0
  6  9  2  0  0  0  0
  6 12  1  0  0  0  0
  7  9  1  0  0  0  0
  7 13  1  0  0  0  0
  9 14  1  0  0  0  0
M  END

> <PUBCHEM_BONDANNOTATIONS>
3  4  8
3  5  8
4  6  8
5  7  8
6  9  8
7  9  8

> <StdInChI>
InChI=1S/C7H8N2/c8-7(9)6-4-2-1-3-5-6/h1-5H,(H3,8,9)

> <StdInChIKey>
PXXJHWLDUBFPOL-UHFFFAOYSA-N

> <AuxInfo>
1/1/N:9,6,7,4,5,3,8,1,2/E:(2,3)(4,5)(8,9)/rA:17nNNCCCCCCCHHHHHHHH/rB:;;d3;s3;s4;d5;s1d2s3;d6s7;s4;s5;s6;s7;s9;s1;s1;s2;/rC:-.5573,-2.438,.606;-2.031,-1.5416,-.719;-.2307,-.2114,-.0621;1.1882,-.2043,-.0518;-.8928,1.0424,-.0866;1.9146,1.0011,-.0656;-.1724,2.2515,-.0902;-.943,-1.4056,-.0577;1.233,2.2303,-.0807;1.7196,-1.0793,-.0476;-1.915,1.0971,-.0925;2.9368,.9851,-.0669;-.669,3.1447,-.0987;1.7582,3.1071,-.0852;-.9798,-3.2643,.4846;.1427,-2.3652,1.223;-2.5021,-2.3496,-.709;

> <Formula>
C7 H8 N2

> <Mw>
120.1518

> <SMILES>
N([H])([H])/C(/C1C([H])=C([H])C([H])=C([H])C=1[H])=N\[H]

> <CSID>
2242

$$$$
